/*--------------------------------*- C++ -*----------------------------------*\
  =========                 |
  \\      /  F ield         | OpenFOAM: The Open Source CFD Toolbox
   \\    /   O peration     | Website:  https://openfoam.org
    \\  /    A nd           | Version:  9
     \\/     M anipulation  |
\*---------------------------------------------------------------------------*/
FoamFile
{
    format      ascii;
    class       volVectorField;
    object      U;
}
// * * * * * * * * * * * * * * * * * * * * * * * * * * * * * * * * * * * * * //

dimensions      [0 1 -1 0 0 0 0];

internalField   uniform (0 0 0);

boundaryField
{
    inlet
    {
        type            uniformFixedValue;
        uniformValue    constant (5 0 0);
    }

    outlet
    {
        type            zeroGradient;
    }

    ground
    {
        type            noSlip;
    }

    top
    {
        type            symmetryPlane;
    }

    frontAndBack
    {
        type            empty;
    }

}

// ************************************************************************* //
